!-Generator IDFEditor 1.50
!-Option SortedOrder UseSpecialFormat

!-NOTE: All comments with '!-' are ignored by the IDFEditor and are generated automatically.
!-      Use '!' comments if they need to be retained when using the IDFEditor.


!-   ===========  ALL OBJECTS IN CLASS: VERSION ===========

! 5ZoneFanCoilDOASCool.idf
! Basic file description:  1 story building divided into 4 exterior and one interior conditioned zones and return plenum
!                          Illustrates the sizing and use of a Dedicated Outdoor Air System with fan coil units.
! Highlights:              Fan coils with DOAS
!
! Simulation Location/Run: CHICAGO_IL_USA TMY2-94846, 2 design days, 2 run periods,
!                          Run Control executes the run periods using the weather file
!
! Location:                Chicago, IL
!
! Design Days:             CHICAGO_IL_USA Annual Heating 99% Design Conditions DB, MaxDB= -17.3°C
!                          CHICAGO_IL_USA Annual Cooling 1% Design Conditions, MaxDB=  31.5°C MCWB=  23.0°C
!
! Run Period (Weather File): Winter 1/14, Summer 7/7, CHICAGO_IL_USA TMY2-94846
!
! Run Control:             Zone and System sizing with weather file run control (no design days run)
!
! Building: Single floor rectangular building 100 ft x 50 ft. 5 zones - 4 exterior, 1 interior, zone height 8 feet.
!           Exterior zone depth is 12 feet. There is a 2 foot high return plenum: the overall building height is
!           10 feet. There are windows on all 4 facades; the south and north facades have glass doors.
!           The south facing glass is shaded by overhangs. The walls are woodshingle over plywood, R11 insulation,
!           and gypboard. The roof is a gravel built up roof with R-3 mineral board insulation and plywood sheathing.
!           The windows are of various single and double pane construction with 3mm and 6mm glass and either 6mm or
!           13mm argon or air gap.  The window to wall ratio is approximately 0.29.
!           The south wall and door have overhangs.
!
!           The building is oriented 30 degrees east of north.
!
! Floor Area:        463.6 m2 (5000 ft2)
! Number of Stories: 1
!
! Zone Description Details:
!
!      (0,15.2,0)                      (30.5,15.2,0)
!           _____   ________                ____
!         |\     ***        ****************   /|
!         | \                                 / |
!         |  \                 (26.8,11.6,0) /  |
!         *   \_____________________________/   *
!         *    |(3.7,11.6,0)               |    *
!         *    |                           |    *
!         *    |                           |    *
!         *    |               (26.8,3.7,0)|    *
!         *    |___________________________|    *
!         *   / (3.7,3.7,0)                 \   *
!         |  /                               \  |
!         | /                                 \ |
!         |/___******************___***________\|
!          |       Overhang        |   |
!          |_______________________|   |   window/door = *
!                                  |___|
!
!      (0,0,0)                            (30.5,0,0)
!
! Internal gains description:     lighting is 1.5 watts/ft2, office equip is 1.0 watts/ft2. There is 1 occupant
!                                 per 100 ft2 of floor area. The infiltration is 0.25 air changes per hour.
!
! Interzone Surfaces:             6 interzone surfaces (see diagram)
! Internal Mass:                  None
! People:                         50
! Lights:                         7500 W
! Windows:                        4 ea.: 1) Double pane clear, 3mm glass, 13mm air gap
!                                        2) Double pane clear, 3mm glass, 13mm argon gap
!                                        3) Double pane clear, 6mm glass, 6mm air gap
!                                        4) Double pane lowE,  6mm lowE glass outside, 6mm air gap, 6mm clear glass
!
! Doors:                          2 ea.:    Single pane grey,  3mm glass
!
! Detached Shading:               None
! Daylight:                       None
! Natural Ventilation:            None
! Compact Schedules:              Yes
!
! HVAC:                           Four pipe fan coil system with dedicated outdoor air system, hot water heating coils,
!                                 and chilled water cooling coils. Central Plant is single hot water
!                                 boiler, electric compression chiller with water cooled condenser.
!                                 All equipment is autosized.
!
! Zonal Equipment:                Yes
! Central Air Handling Equipment: Yes
! System Equipment Autosize:      Yes
! Purchased Cooling:              None
! Purchased Heating:              None
! Coils:                          Yes
! Pumps:                          Yes
! Boilers:                        Yes
! Chillers:                       Yes
!
! Results:
! Standard Reports:               All
! Timestep or Hourly Variables:   Hourly
! Time bins Report:               None
! HTML Report:                    Yes
! Environmental Emissions:        None
! Utility Tariffs:                None
Version,9.1;

!-   ===========  ALL OBJECTS IN CLASS: SIMULATIONCONTROL ===========


SimulationControl,
    Yes,                     !- Do Zone Sizing Calculation
    Yes,                     !- Do System Sizing Calculation
    Yes,                     !- Do Plant Sizing Calculation
    No,                      !- Run Simulation for Sizing Periods
    Yes;                     !- Run Simulation for Weather File Run Periods


!-   ===========  ALL OBJECTS IN CLASS: BUILDING ===========

Building,
    Fan Coil with DOAS,      !- Name
    30.,                     !- North Axis {deg}
    City,                    !- Terrain
    0.04,                    !- Loads Convergence Tolerance Value
    0.4,                     !- Temperature Convergence Tolerance Value {deltaC}
    FullExterior,            !- Solar Distribution
    25,                      !- Maximum Number of Warmup Days
    6;                       !- Minimum Number of Warmup Days


!-   ===========  ALL OBJECTS IN CLASS: SURFACECONVECTIONALGORITHM:INSIDE ===========

SurfaceConvectionAlgorithm:Inside,TARP;

!-   ===========  ALL OBJECTS IN CLASS: SURFACECONVECTIONALGORITHM:OUTSIDE ===========

SurfaceConvectionAlgorithm:Outside,DOE-2;

!-   ===========  ALL OBJECTS IN CLASS: HEATBALANCEALGORITHM ===========

HeatBalanceAlgorithm,ConductionTransferFunction;

!-   ===========  ALL OBJECTS IN CLASS: TIMESTEP ===========

Timestep,4;

!-   ===========  ALL OBJECTS IN CLASS: SITE:LOCATION ===========


Site:Location,
    CHICAGO_IL_USA TMY2-94846,  !- Name
    41.78,                   !- Latitude {deg}
    -87.75,                  !- Longitude {deg}
    -6.00,                   !- Time Zone {hr}
    190.00;                  !- Elevation {m}


!-   ===========  ALL OBJECTS IN CLASS: SIZINGPERIOD:DESIGNDAY ===========

! CHICAGO_IL_USA Annual Heating 99% Design Conditions DB, MaxDB= -17.3°C
SizingPeriod:DesignDay,
    CHICAGO_IL_USA Annual Heating 99% Design Conditions DB,  !- Name
    1,                       !- Month
    21,                      !- Day of Month
    WinterDesignDay,         !- Day Type
    -17.3,                   !- Maximum Dry-Bulb Temperature {C}
    0.0,                     !- Daily Dry-Bulb Temperature Range {deltaC}
    ,                        !- Dry-Bulb Temperature Range Modifier Type
    ,                        !- Dry-Bulb Temperature Range Modifier Day Schedule Name
    Wetbulb,                 !- Humidity Condition Type
    -17.3,                   !- Wetbulb or DewPoint at Maximum Dry-Bulb {C}
    ,                        !- Humidity Condition Day Schedule Name
    ,                        !- Humidity Ratio at Maximum Dry-Bulb {kgWater/kgDryAir}
    ,                        !- Enthalpy at Maximum Dry-Bulb {J/kg}
    ,                        !- Daily Wet-Bulb Temperature Range {deltaC}
    99063.,                  !- Barometric Pressure {Pa}
    4.9,                     !- Wind Speed {m/s}
    270,                     !- Wind Direction {deg}
    No,                      !- Rain Indicator
    No,                      !- Snow Indicator
    No,                      !- Daylight Saving Time Indicator
    ASHRAEClearSky,          !- Solar Model Indicator
    ,                        !- Beam Solar Day Schedule Name
    ,                        !- Diffuse Solar Day Schedule Name
    ,                        !- ASHRAE Clear Sky Optical Depth for Beam Irradiance (taub) {dimensionless}
    ,                        !- ASHRAE Clear Sky Optical Depth for Diffuse Irradiance (taud) {dimensionless}
    0.0;                     !- Sky Clearness

! CHICAGO_IL_USA Annual Cooling 1% Design Conditions, MaxDB=  31.5°C MCWB=  23.0°C
SizingPeriod:DesignDay,
    CHICAGO_IL_USA Annual Cooling 1% Design Conditions DB/MCWB,  !- Name
    7,                       !- Month
    21,                      !- Day of Month
    SummerDesignDay,         !- Day Type
    31.5,                    !- Maximum Dry-Bulb Temperature {C}
    10.7,                    !- Daily Dry-Bulb Temperature Range {deltaC}
    ,                        !- Dry-Bulb Temperature Range Modifier Type
    ,                        !- Dry-Bulb Temperature Range Modifier Day Schedule Name
    Wetbulb,                 !- Humidity Condition Type
    23.0,                    !- Wetbulb or DewPoint at Maximum Dry-Bulb {C}
    ,                        !- Humidity Condition Day Schedule Name
    ,                        !- Humidity Ratio at Maximum Dry-Bulb {kgWater/kgDryAir}
    ,                        !- Enthalpy at Maximum Dry-Bulb {J/kg}
    ,                        !- Daily Wet-Bulb Temperature Range {deltaC}
    99063.,                  !- Barometric Pressure {Pa}
    5.3,                     !- Wind Speed {m/s}
    230,                     !- Wind Direction {deg}
    No,                      !- Rain Indicator
    No,                      !- Snow Indicator
    No,                      !- Daylight Saving Time Indicator
    ASHRAEClearSky,          !- Solar Model Indicator
    ,                        !- Beam Solar Day Schedule Name
    ,                        !- Diffuse Solar Day Schedule Name
    ,                        !- ASHRAE Clear Sky Optical Depth for Beam Irradiance (taub) {dimensionless}
    ,                        !- ASHRAE Clear Sky Optical Depth for Diffuse Irradiance (taud) {dimensionless}
    1.0;                     !- Sky Clearness


!-   ===========  ALL OBJECTS IN CLASS: RUNPERIOD ===========

RunPeriod,
    ,                        !- Name
    1,                       !- Begin Month
    1,                       !- Begin Day of Month
    ,                        !- Begin Year
    12,                      !- End Month
    31,                      !- End Day of Month
    ,                        !- End Year
    Tuesday,                 !- Day of Week for Start Day
    Yes,                     !- Use Weather File Holidays and Special Days
    Yes,                     !- Use Weather File Daylight Saving Period
    No,                      !- Apply Weekend Holiday Rule
    Yes,                     !- Use Weather File Rain Indicators
    Yes;                     !- Use Weather File Snow Indicators


!-   ===========  ALL OBJECTS IN CLASS: SITE:GROUNDTEMPERATURE:BUILDINGSURFACE ===========

Site:GroundTemperature:BuildingSurface,21.5,21.4,21.5,21.5,22.0,22.9,23.0,23.1,23.1,22.2,21.7,21.6;

!-   ===========  ALL OBJECTS IN CLASS: SCHEDULETYPELIMITS ===========


ScheduleTypeLimits,
    Any Number;              !- Name

ScheduleTypeLimits,
    Fraction,                !- Name
    0.0,                     !- Lower Limit Value
    1.0,                     !- Upper Limit Value
    CONTINUOUS;              !- Numeric Type

ScheduleTypeLimits,
    Temperature,             !- Name
    -60,                     !- Lower Limit Value
    200,                     !- Upper Limit Value
    CONTINUOUS,              !- Numeric Type
    Temperature;             !- Unit Type

ScheduleTypeLimits,
    Control Type,            !- Name
    0,                       !- Lower Limit Value
    4,                       !- Upper Limit Value
    DISCRETE;                !- Numeric Type

ScheduleTypeLimits,
    On/Off,                  !- Name
    0,                       !- Lower Limit Value
    1,                       !- Upper Limit Value
    DISCRETE;                !- Numeric Type

ScheduleTypeLimits,
    FlowRate,                !- Name
    0.0,                     !- Lower Limit Value
    10,                      !- Upper Limit Value
    CONTINUOUS;              !- Numeric Type

ScheduleTypeLimits,
    HVACTemplate Any Number; !- Name


!-   ===========  ALL OBJECTS IN CLASS: SCHEDULE:COMPACT ===========

Schedule:Compact,
    OCCUPY-1,                !- Name
    Fraction,                !- Schedule Type Limits Name
    Through: 12/31,          !- Field 1
    For: WeekDays SummerDesignDay CustomDay1 CustomDay2,  !- Field 2
    Until: 8:00, 0.0,        !- Field 4
    Until: 11:00, 1.00,      !- Field 6
    Until: 12:00, 0.80,      !- Field 8
    Until: 13:00, 0.40,      !- Field 10
    Until: 14:00, 0.80,      !- Field 12
    Until: 18:00, 1.00,      !- Field 14
    Until: 19:00, 0.50,      !- Field 16
    Until: 21:00, 0.10,      !- Field 18
    Until: 24:00, 0.0,       !- Field 20
    For: Weekends WinterDesignDay Holiday,  !- Field 21
    Until: 24:00, 0.0;       !- Field 23

Schedule:Compact,
    LIGHTS-1,                !- Name
    Fraction,                !- Schedule Type Limits Name
    Through: 12/31,          !- Field 1
    For: WeekDays SummerDesignDay CustomDay1 CustomDay2,  !- Field 2
    Until: 8:00, 0.05,       !- Field 4
    Until: 9:00, 0.9,        !- Field 6
    Until: 10:00, 0.95,      !- Field 8
    Until: 11:00, 1.00,      !- Field 10
    Until: 12:00, 0.95,      !- Field 12
    Until: 13:00, 0.8,       !- Field 14
    Until: 14:00, 0.9,       !- Field 16
    Until: 18:00, 1.00,      !- Field 18
    Until: 19:00, 0.60,      !- Field 20
    Until: 21:00, 0.40,      !- Field 22
    Until: 24:00, 0.05,      !- Field 24
    For: Weekends WinterDesignDay Holiday,  !- Field 25
    Until: 24:00, 0.05;      !- Field 27

Schedule:Compact,
    EQUIP-1,                 !- Name
    Fraction,                !- Schedule Type Limits Name
    Through: 12/31,          !- Field 1
    For: WeekDays SummerDesignDay CustomDay1 CustomDay2,  !- Field 2
    Until: 8:00, 0.02,       !- Field 4
    Until: 9:00, 0.4,        !- Field 6
    Until: 14:00, 0.9,       !- Field 8
    Until: 15:00, 0.8,       !- Field 10
    Until: 16:00, 0.7,       !- Field 12
    Until: 18:00, 0.5,       !- Field 14
    Until: 21:00, 0.3,       !- Field 16
    Until: 24:00, 0.02,      !- Field 18
    For: Weekends WinterDesignDay Holiday,  !- Field 19
    Until: 24:00, 0.02;      !- Field 21

Schedule:Compact,
    INFIL-SCH,               !- Name
    Fraction,                !- Schedule Type Limits Name
    Through: 12/31,          !- Field 1
    For: WeekDays CustomDay1 CustomDay2,  !- Field 2
    Until: 7:00, 1.0,        !- Field 4
    Until: 21:00, 0.0,       !- Field 6
    Until: 24:00, 1.0,       !- Field 8
    For: Weekends Holiday,   !- Field 9
    Until: 24:00, 1.0,       !- Field 11
    For: SummerDesignDay,    !- Field 12
    Until: 24:00, 1.0,       !- Field 14
    For: WinterDesignDay,    !- Field 15
    Until: 24:00, 1.0;       !- Field 17

Schedule:Compact,
    ActSchd,                 !- Name
    Any Number,              !- Schedule Type Limits Name
    Through: 12/31,          !- Field 1
    For: AllDays,            !- Field 2
    Until: 24:00, 117.239997864;
                             !- Field 4

Schedule:Compact,
    ShadeTransSch,           !- Name
    Fraction,                !- Schedule Type Limits Name
    Through: 12/31,          !- Field 1
    For: AllDays,            !- Field 2
    Until: 24:00, 0.0;       !- Field 4

! For heating, recover 2 hrs early
Schedule:Compact,
    Htg-SetP-Sch,            !- Name
    Temperature,             !- Schedule Type Limits Name
    Through: 12/31,          !- Field 1
    For: WeekDays CustomDay1 CustomDay2,  !- Field 2
    Until: 6:00, 13.0,       !- Field 4
    Until: 7:00, 18.0,       !- Field 6
    Until: 21:00, 23.0,      !- Field 8
    Until: 24:00, 13.0,      !- Field 10
    For: WeekEnds Holiday,   !- Field 11
    Until: 24:00, 13.0,      !- Field 13
    For: SummerDesignDay,    !- Field 14
    Until: 24:00, 13.0,      !- Field 16
    For: WinterDesignDay,    !- Field 17
    Until: 24:00, 23.0;      !- Field 19

! For cooling, recover 1 hr early
Schedule:Compact,
    Clg-SetP-Sch,            !- Name
    Temperature,             !- Schedule Type Limits Name
    Through: 12/31,          !- Field 1
    For: WeekDays CustomDay1 CustomDay2,  !- Field 2
    Until: 7:00, 32.0,       !- Field 4
    Until: 21:00, 24.0,      !- Field 6
    Until: 24:00, 32.0,      !- Field 8
    For: WeekEnds Holiday,   !- Field 9
    Until: 24:00, 32.0,      !- Field 11
    For: SummerDesignDay,    !- Field 12
    Until: 24:00, 24.0,      !- Field 14
    For: WinterDesignDay,    !- Field 15
    Until: 24:00, 32.0;      !- Field 17

Schedule:Compact,
    FanAvailSched,           !- Name
    Fraction,                !- Schedule Type Limits Name
    Through: 12/31,          !- Field 1
    For: WeekDays CustomDay1 CustomDay2,  !- Field 2
    Until: 7:00, 0.0,        !- Field 4
    Until: 21:00, 1.0,       !- Field 6
    Until: 24:00, 0.0,       !- Field 8
    For: Weekends Holiday,   !- Field 9
    Until: 24:00, 0.0,       !- Field 11
    For: SummerDesignDay,    !- Field 12
    Until: 24:00, 1.0,       !- Field 14
    For: WinterDesignDay,    !- Field 15
    Until: 24:00, 1.0;       !- Field 17

Schedule:Compact,
    HVACTemplate-Dynamic1,   !- Name
    HVACTemplate Any Number, !- Schedule Type Limits Name
    Through:1/1,             !- Field 1
    For:Alldays,             !- Field 2
    Until:7:00, 12.2,        !- Field 4
    Until:8:00, %SetPoint8%, !- Field 6
    Until:9:00, %SetPoint9%, !- Field 8
    Until:10:00, %SetPoint10%,
                             !- Field 10
    Until:11:00, %SetPoint11%,
                             !- Field 12
    Until:12:00, %SetPoint12%,
                             !- Field 14
    Until:13:00, %SetPoint13%,
                             !- Field 16
    Until:14:00, %SetPoint14%,
                             !- Field 18
    Until:15:00, %SetPoint15%,
                             !- Field 20
    Until:16:00, %SetPoint16%,
                             !- Field 22
    Until:17:00, %SetPoint17%,
                             !- Field 24
    Until:18:00, %SetPoint18%,
                             !- Field 26
    Until:19:00, %SetPoint19%,
                             !- Field 28
    Until:20:00, %SetPoint20%,
                             !- Field 30
    Until:21:00, %SetPoint21%,
                             !- Field 32
    Until:24:00, 12.2,       !- Field 34
    Through:1/2,             !- Field 35
    For:Alldays,             !- Field 36
    Until:7:00, 12.2,        !- Field 38
    Until:8:00, %SetPoint32%,!- Field 40
    Until:9:00, %SetPoint33%,!- Field 42
    Until:10:00, %SetPoint34%,
                             !- Field 44
    Until:11:00, %SetPoint35%,
                             !- Field 46
    Until:12:00, %SetPoint36%,
                             !- Field 48
    Until:13:00, %SetPoint37%,
                             !- Field 50
    Until:14:00, %SetPoint38%,
                             !- Field 52
    Until:15:00, %SetPoint39%,
                             !- Field 54
    Until:16:00, %SetPoint40%,
                             !- Field 56
    Until:17:00, %SetPoint41%,
                             !- Field 58
    Until:18:00, %SetPoint42%,
                             !- Field 60
    Until:19:00, %SetPoint43%,
                             !- Field 62
    Until:20:00, %SetPoint44%,
                             !- Field 64
    Until:21:00, %SetPoint45%,
                             !- Field 66
    Until:24:00, 12.2,       !- Field 68
    Through:1/3,             !- Field 69
    For:Alldays,             !- Field 70
    Until:7:00, 12.2,        !- Field 72
    Until:8:00, %SetPoint56%,!- Field 74
    Until:9:00, %SetPoint57%,!- Field 76
    Until:10:00, %SetPoint58%,
                             !- Field 78
    Until:11:00, %SetPoint59%,
                             !- Field 80
    Until:12:00, %SetPoint60%,
                             !- Field 82
    Until:13:00, %SetPoint61%,
                             !- Field 84
    Until:14:00, %SetPoint62%,
                             !- Field 86
    Until:15:00, %SetPoint63%,
                             !- Field 88
    Until:16:00, %SetPoint64%,
                             !- Field 90
    Until:17:00, %SetPoint65%,
                             !- Field 92
    Until:18:00, %SetPoint66%,
                             !- Field 94
    Until:19:00, %SetPoint67%,
                             !- Field 96
    Until:20:00, %SetPoint68%,
                             !- Field 98
    Until:21:00, %SetPoint69%,
                             !- Field 100
    Until:24:00, 12.2,       !- Field 102
    Through:1/4,             !- Field 103
    For:Alldays,             !- Field 104
    Until:7:00, 12.2,        !- Field 106
    Until:8:00, %SetPoint80%,!- Field 108
    Until:9:00, %SetPoint81%,!- Field 110
    Until:10:00, %SetPoint82%,
                             !- Field 112
    Until:11:00, %SetPoint83%,
                             !- Field 114
    Until:12:00, %SetPoint84%,
                             !- Field 116
    Until:13:00, %SetPoint85%,
                             !- Field 118
    Until:14:00, %SetPoint86%,
                             !- Field 120
    Until:15:00, %SetPoint87%,
                             !- Field 122
    Until:16:00, %SetPoint88%,
                             !- Field 124
    Until:17:00, %SetPoint89%,
                             !- Field 126
    Until:18:00, %SetPoint90%,
                             !- Field 128
    Until:19:00, %SetPoint91%,
                             !- Field 130
    Until:20:00, %SetPoint92%,
                             !- Field 132
    Until:21:00, %SetPoint93%,
                             !- Field 134
    Until:24:00, 12.2,       !- Field 136
    Through:1/5,             !- Field 137
    For:Alldays,             !- Field 138
    Until:7:00, 12.2,        !- Field 140
    Until:8:00, %SetPoint104%,
                             !- Field 142
    Until:9:00, %SetPoint105%,
                             !- Field 144
    Until:10:00, %SetPoint106%,
                             !- Field 146
    Until:11:00, %SetPoint107%,
                             !- Field 148
    Until:12:00, %SetPoint108%,
                             !- Field 150
    Until:13:00, %SetPoint109%,
                             !- A154
    Until:14:00, %SetPoint110%,
                             !- A156
    Until:15:00, %SetPoint111%,
                             !- A158
    Until:16:00, %SetPoint112%,
                             !- A160
    Until:17:00, %SetPoint113%,
                             !- A162
    Until:18:00, %SetPoint114%,
                             !- A164
    Until:19:00, %SetPoint115%,
                             !- A166
    Until:20:00, %SetPoint116%,
                             !- A168
    Until:21:00, %SetPoint117%,
                             !- A170
    Until:24:00, 12.2,       !- A172
    Through:1/6,             !- A173
    For:Alldays,             !- A174
    Until:7:00, 12.2,        !- A176
    Until:8:00, %SetPoint128%,
                             !- A178
    Until:9:00, %SetPoint129%,
                             !- A180
    Until:10:00, %SetPoint130%,
                             !- A182
    Until:11:00, %SetPoint131%,
                             !- A184
    Until:12:00, %SetPoint132%,
                             !- A186
    Until:13:00, %SetPoint133%,
                             !- A188
    Until:14:00, %SetPoint134%,
                             !- A190
    Until:15:00, %SetPoint135%,
                             !- A192
    Until:16:00, %SetPoint136%,
                             !- A194
    Until:17:00, %SetPoint137%,
                             !- A196
    Until:18:00, %SetPoint138%,
                             !- A198
    Until:19:00, %SetPoint139%,
                             !- A200
    Until:20:00, %SetPoint140%,
                             !- A202
    Until:21:00, %SetPoint141%,
                             !- A204
    Until:24:00, 12.2,       !- A206
    Through:1/7,             !- A207
    For:Alldays,             !- A208
    Until:7:00, 12.2,        !- A210
    Until:8:00, %SetPoint152%,
                             !- A212
    Until:9:00, %SetPoint153%,
                             !- A214
    Until:10:00, %SetPoint154%,
                             !- A216
    Until:11:00, %SetPoint155%,
                             !- A218
    Until:12:00, %SetPoint156%,
                             !- A220
    Until:13:00, %SetPoint157%,
                             !- A222
    Until:14:00, %SetPoint158%,
                             !- A224
    Until:15:00, %SetPoint159%,
                             !- A226
    Until:16:00, %SetPoint160%,
                             !- A228
    Until:17:00, %SetPoint161%,
                             !- A230
    Until:18:00, %SetPoint162%,
                             !- A232
    Until:19:00, %SetPoint163%,
                             !- A234
    Until:20:00, %SetPoint164%,
                             !- A236
    Until:21:00, %SetPoint165%,
                             !- A238
    Until:24:00, 12.2,       !- A240
    Through:1/8,             !- A241
    For:Alldays,             !- A242
    Until:7:00, 12.2,        !- A244
    Until:8:00, %SetPoint176%,
                             !- A246
    Until:9:00, %SetPoint177%,
                             !- A248
    Until:10:00, %SetPoint178%,
                             !- A250
    Until:11:00, %SetPoint179%,
                             !- A252
    Until:12:00, %SetPoint180%,
                             !- A254
    Until:13:00, %SetPoint181%,
                             !- A256
    Until:14:00, %SetPoint182%,
                             !- A258
    Until:15:00, %SetPoint183%,
                             !- A260
    Until:16:00, %SetPoint184%,
                             !- A262
    Until:17:00, %SetPoint185%,
                             !- A264
    Until:18:00, %SetPoint186%,
                             !- A266
    Until:19:00, %SetPoint187%,
                             !- A268
    Until:20:00, %SetPoint188%,
                             !- A270
    Until:21:00, %SetPoint189%,
                             !- A272
    Until:24:00, 12.2,       !- A274
    Through:1/9,             !- A275
    For:Alldays,             !- A276
    Until:7:00, 12.2,        !- A278
    Until:8:00, %SetPoint200%,
                             !- A280
    Until:9:00, %SetPoint201%,
                             !- A282
    Until:10:00, %SetPoint202%,
                             !- A284
    Until:11:00, %SetPoint203%,
                             !- A286
    Until:12:00, %SetPoint204%,
                             !- A288
    Until:13:00, %SetPoint205%,
                             !- A290
    Until:14:00, %SetPoint206%,
                             !- A292
    Until:15:00, %SetPoint207%,
                             !- A294
    Until:16:00, %SetPoint208%,
                             !- A296
    Until:17:00, %SetPoint209%,
                             !- A298
    Until:18:00, %SetPoint210%,
                             !- A300
    Until:19:00, %SetPoint211%,
                             !- A302
    Until:20:00, %SetPoint212%,
                             !- A304
    Until:21:00, %SetPoint213%,
                             !- A306
    Until:24:00, 12.2,       !- A308
    Through:1/10,            !- A309
    For:Alldays,             !- A310
    Until:7:00, 12.2,        !- A312
    Until:8:00, %SetPoint224%,
                             !- A314
    Until:9:00, %SetPoint225%,
                             !- A316
    Until:10:00, %SetPoint226%,
                             !- A318
    Until:11:00, %SetPoint227%,
                             !- A320
    Until:12:00, %SetPoint228%,
                             !- A322
    Until:13:00, %SetPoint229%,
                             !- A324
    Until:14:00, %SetPoint230%,
                             !- A326
    Until:15:00, %SetPoint231%,
                             !- A328
    Until:16:00, %SetPoint232%,
                             !- A330
    Until:17:00, %SetPoint233%,
                             !- A332
    Until:18:00, %SetPoint234%,
                             !- A334
    Until:19:00, %SetPoint235%,
                             !- A336
    Until:20:00, %SetPoint236%,
                             !- A338
    Until:21:00, %SetPoint237%,
                             !- A340
    Until:24:00, 12.2,       !- A342
    Through:1/11,            !- A343
    For:Alldays,             !- A344
    Until:7:00, 12.2,        !- A346
    Until:8:00, %SetPoint248%,
                             !- A348